<NUMBER OF ZONES> 36
<TOTAL OD FLOW> 820.00000000000
<DEMAND FACTOR> 2.0
<END OF METADATA> 


Origin 1 
3 	: 	20.0; 	16 	: 	20.0; 	25 	: 	10.0; 	28 	: 	10.0; 	
29 	: 	30.0; 	31 	: 	30.0; 	

Origin 3 
1 	: 	20.0; 	16 	: 	20.0; 	25 	: 	20.0; 	28 	: 	20.0; 	
29 	: 	20.0; 	31 	: 	20.0; 	

Origin 16 
1 	: 	20.0; 	3 	: 	20.0; 	25 	: 	30.0; 	28 	: 	10.0; 	
29 	: 	10.0; 	31 	: 	30.0; 	

Origin 25 
1 	: 	10.0; 	3 	: 	20.0; 	16 	: 	30.0; 	28 	: 	30.0; 	
29 	: 	20.0;  	31 	: 	10.0; 	

Origin 28 
1 	: 	10.0; 	3 	: 	20.0; 	16 	: 	10.0; 	25 	: 	30.0; 	
29 	: 	30.0; 	31 	: 	10.0; 	

Origin 29 
1 	: 	30.0; 	3 	: 	20.0; 	16 	: 	10.0; 	25 	: 	20.0; 	
28 	: 	30.0; 	31 	: 	10.0; 	

Origin 31 
1 	: 	30.0; 	3 	: 	20.0; 	16 	: 	30.0; 	25 	: 	10.0; 	
28 	: 	10.0; 	29 	: 	10.0; 	
